<?xml version="1.0" encoding="UTF-8" standalone="yes"?>
<template encoding-version="1.3">
    <description></description>
    <groupId>a0b247b5-016f-1000-4ec1-7bac561da76e</groupId>
    <name>Zoopla Scrape Flow</name>
    <snippet>
        <connections>
            <id>09c6a253-7016-3502-0000-000000000000</id>
            <parentGroupId>749470ad-9bc1-3fa4-0000-000000000000</parentGroupId>
            <backPressureDataSizeThreshold>1 GB</backPressureDataSizeThreshold>
            <backPressureObjectThreshold>10000</backPressureObjectThreshold>
            <destination>
                <groupId>749470ad-9bc1-3fa4-0000-000000000000</groupId>
                <id>61e894ac-7f57-32fb-0000-000000000000</id>
                <type>PROCESSOR</type>
            </destination>
            <flowFileExpiration>0 sec</flowFileExpiration>
            <labelIndex>1</labelIndex>
            <loadBalanceCompression>DO_NOT_COMPRESS</loadBalanceCompression>
            <loadBalancePartitionAttribute></loadBalancePartitionAttribute>
            <loadBalanceStatus>LOAD_BALANCE_NOT_CONFIGURED</loadBalanceStatus>
            <loadBalanceStrategy>DO_NOT_LOAD_BALANCE</loadBalanceStrategy>
            <name></name>
            <selectedRelationships>success</selectedRelationships>
            <source>
                <groupId>749470ad-9bc1-3fa4-0000-000000000000</groupId>
                <id>e8b0e0c1-44b2-3633-0000-000000000000</id>
                <type>PROCESSOR</type>
            </source>
            <zIndex>0</zIndex>
        </connections>
        <connections>
            <id>2add3730-fdcc-36c4-0000-000000000000</id>
            <parentGroupId>749470ad-9bc1-3fa4-0000-000000000000</parentGroupId>
            <backPressureDataSizeThreshold>1 GB</backPressureDataSizeThreshold>
            <backPressureObjectThreshold>10000</backPressureObjectThreshold>
            <destination>
                <groupId>749470ad-9bc1-3fa4-0000-000000000000</groupId>
                <id>1a6d86bb-5528-3dde-0000-000000000000</id>
                <type>PROCESSOR</type>
            </destination>
            <flowFileExpiration>0 sec</flowFileExpiration>
            <labelIndex>1</labelIndex>
            <loadBalanceCompression>DO_NOT_COMPRESS</loadBalanceCompression>
            <loadBalancePartitionAttribute></loadBalancePartitionAttribute>
            <loadBalanceStatus>LOAD_BALANCE_NOT_CONFIGURED</loadBalanceStatus>
            <loadBalanceStrategy>DO_NOT_LOAD_BALANCE</loadBalanceStrategy>
            <name></name>
            <selectedRelationships>split</selectedRelationships>
            <source>
                <groupId>749470ad-9bc1-3fa4-0000-000000000000</groupId>
                <id>2557f0db-68fc-3271-0000-000000000000</id>
                <type>PROCESSOR</type>
            </source>
            <zIndex>0</zIndex>
        </connections>
        <connections>
            <id>3c84c36d-c143-3e02-0000-000000000000</id>
            <parentGroupId>749470ad-9bc1-3fa4-0000-000000000000</parentGroupId>
            <backPressureDataSizeThreshold>1 GB</backPressureDataSizeThreshold>
            <backPressureObjectThreshold>10000</backPressureObjectThreshold>
            <destination>
                <groupId>749470ad-9bc1-3fa4-0000-000000000000</groupId>
                <id>9af4cdef-52f3-3132-0000-000000000000</id>
                <type>FUNNEL</type>
            </destination>
            <flowFileExpiration>0 sec</flowFileExpiration>
            <labelIndex>1</labelIndex>
            <loadBalanceCompression>DO_NOT_COMPRESS</loadBalanceCompression>
            <loadBalancePartitionAttribute></loadBalancePartitionAttribute>
            <loadBalanceStatus>LOAD_BALANCE_NOT_CONFIGURED</loadBalanceStatus>
            <loadBalanceStrategy>DO_NOT_LOAD_BALANCE</loadBalanceStrategy>
            <name></name>
            <selectedRelationships>failure</selectedRelationships>
            <source>
                <groupId>749470ad-9bc1-3fa4-0000-000000000000</groupId>
                <id>1a6d86bb-5528-3dde-0000-000000000000</id>
                <type>PROCESSOR</type>
            </source>
            <zIndex>0</zIndex>
        </connections>
        <connections>
            <id>3e53b036-ac54-3180-0000-000000000000</id>
            <parentGroupId>749470ad-9bc1-3fa4-0000-000000000000</parentGroupId>
            <backPressureDataSizeThreshold>1 GB</backPressureDataSizeThreshold>
            <backPressureObjectThreshold>10000</backPressureObjectThreshold>
            <bends>
                <x>1008.0</x>
                <y>248.0</y>
            </bends>
            <destination>
                <groupId>ed4c0844-edf5-336e-0000-000000000000</groupId>
                <id>81b54891-4585-3cc2-0000-000000000000</id>
                <type>INPUT_PORT</type>
            </destination>
            <flowFileExpiration>0 sec</flowFileExpiration>
            <labelIndex>0</labelIndex>
            <loadBalanceCompression>DO_NOT_COMPRESS</loadBalanceCompression>
            <loadBalancePartitionAttribute></loadBalancePartitionAttribute>
            <loadBalanceStatus>LOAD_BALANCE_NOT_CONFIGURED</loadBalanceStatus>
            <loadBalanceStrategy>DO_NOT_LOAD_BALANCE</loadBalanceStrategy>
            <name></name>
            <selectedRelationships>Response</selectedRelationships>
            <source>
                <groupId>749470ad-9bc1-3fa4-0000-000000000000</groupId>
                <id>61e894ac-7f57-32fb-0000-000000000000</id>
                <type>PROCESSOR</type>
            </source>
            <zIndex>0</zIndex>
        </connections>
        <connections>
            <id>507bedc8-682b-3cee-0000-000000000000</id>
            <parentGroupId>749470ad-9bc1-3fa4-0000-000000000000</parentGroupId>
            <backPressureDataSizeThreshold>1 GB</backPressureDataSizeThreshold>
            <backPressureObjectThreshold>10000</backPressureObjectThreshold>
            <destination>
                <groupId>cd5019b1-96b1-31c4-0000-000000000000</groupId>
                <id>03c7268f-20c2-3d37-0000-000000000000</id>
                <type>INPUT_PORT</type>
            </destination>
            <flowFileExpiration>0 sec</flowFileExpiration>
            <labelIndex>1</labelIndex>
            <loadBalanceCompression>DO_NOT_COMPRESS</loadBalanceCompression>
            <loadBalancePartitionAttribute></loadBalancePartitionAttribute>
            <loadBalanceStatus>LOAD_BALANCE_NOT_CONFIGURED</loadBalanceStatus>
            <loadBalanceStrategy>DO_NOT_LOAD_BALANCE</loadBalanceStrategy>
            <name></name>
            <selectedRelationships>Response</selectedRelationships>
            <source>
                <groupId>749470ad-9bc1-3fa4-0000-000000000000</groupId>
                <id>61e894ac-7f57-32fb-0000-000000000000</id>
                <type>PROCESSOR</type>
            </source>
            <zIndex>0</zIndex>
        </connections>
        <connections>
            <id>6a841b1f-b724-35a7-0000-000000000000</id>
            <parentGroupId>749470ad-9bc1-3fa4-0000-000000000000</parentGroupId>
            <backPressureDataSizeThreshold>1 GB</backPressureDataSizeThreshold>
            <backPressureObjectThreshold>1000000</backPressureObjectThreshold>
            <destination>
                <groupId>749470ad-9bc1-3fa4-0000-000000000000</groupId>
                <id>0a9450d7-862b-3017-0000-000000000000</id>
                <type>FUNNEL</type>
            </destination>
            <flowFileExpiration>0 sec</flowFileExpiration>
            <labelIndex>1</labelIndex>
            <loadBalanceCompression>DO_NOT_COMPRESS</loadBalanceCompression>
            <loadBalancePartitionAttribute></loadBalancePartitionAttribute>
            <loadBalanceStatus>LOAD_BALANCE_NOT_CONFIGURED</loadBalanceStatus>
            <loadBalanceStrategy>DO_NOT_LOAD_BALANCE</loadBalanceStrategy>
            <name></name>
            <source>
                <groupId>749470ad-9bc1-3fa4-0000-000000000000</groupId>
                <id>e6624b93-5c3c-3fde-0000-000000000000</id>
                <type>FUNNEL</type>
            </source>
            <zIndex>0</zIndex>
        </connections>
        <connections>
            <id>740f7ad5-98b1-326a-0000-000000000000</id>
            <parentGroupId>749470ad-9bc1-3fa4-0000-000000000000</parentGroupId>
            <backPressureDataSizeThreshold>1 GB</backPressureDataSizeThreshold>
            <backPressureObjectThreshold>10000</backPressureObjectThreshold>
            <destination>
                <groupId>749470ad-9bc1-3fa4-0000-000000000000</groupId>
                <id>bfe682b3-a5f3-3abf-0000-000000000000</id>
                <type>PROCESSOR</type>
            </destination>
            <flowFileExpiration>0 sec</flowFileExpiration>
            <labelIndex>1</labelIndex>
            <loadBalanceCompression>DO_NOT_COMPRESS</loadBalanceCompression>
            <loadBalancePartitionAttribute></loadBalancePartitionAttribute>
            <loadBalanceStatus>LOAD_BALANCE_NOT_CONFIGURED</loadBalanceStatus>
            <loadBalanceStrategy>DO_NOT_LOAD_BALANCE</loadBalanceStrategy>
            <name></name>
            <selectedRelationships>Failure</selectedRelationships>
            <selectedRelationships>No Retry</selectedRelationships>
            <selectedRelationships>Retry</selectedRelationships>
            <source>
                <groupId>749470ad-9bc1-3fa4-0000-000000000000</groupId>
                <id>61e894ac-7f57-32fb-0000-000000000000</id>
                <type>PROCESSOR</type>
            </source>
            <zIndex>0</zIndex>
        </connections>
        <connections>
            <id>7c5296eb-8552-3792-0000-000000000000</id>
            <parentGroupId>749470ad-9bc1-3fa4-0000-000000000000</parentGroupId>
            <backPressureDataSizeThreshold>1 GB</backPressureDataSizeThreshold>
            <backPressureObjectThreshold>10000</backPressureObjectThreshold>
            <destination>
                <groupId>749470ad-9bc1-3fa4-0000-000000000000</groupId>
                <id>e6624b93-5c3c-3fde-0000-000000000000</id>
                <type>FUNNEL</type>
            </destination>
            <flowFileExpiration>0 sec</flowFileExpiration>
            <labelIndex>1</labelIndex>
            <loadBalanceCompression>DO_NOT_COMPRESS</loadBalanceCompression>
            <loadBalancePartitionAttribute></loadBalancePartitionAttribute>
            <loadBalanceStatus>LOAD_BALANCE_NOT_CONFIGURED</loadBalanceStatus>
            <loadBalanceStrategy>DO_NOT_LOAD_BALANCE</loadBalanceStrategy>
            <name></name>
            <selectedRelationships>success</selectedRelationships>
            <source>
                <groupId>749470ad-9bc1-3fa4-0000-000000000000</groupId>
                <id>1a6d86bb-5528-3dde-0000-000000000000</id>
                <type>PROCESSOR</type>
            </source>
            <zIndex>0</zIndex>
        </connections>
        <connections>
            <id>b0b9538d-73ae-3559-0000-000000000000</id>
            <parentGroupId>749470ad-9bc1-3fa4-0000-000000000000</parentGroupId>
            <backPressureDataSizeThreshold>1 GB</backPressureDataSizeThreshold>
            <backPressureObjectThreshold>10000</backPressureObjectThreshold>
            <destination>
                <groupId>749470ad-9bc1-3fa4-0000-000000000000</groupId>
                <id>2557f0db-68fc-3271-0000-000000000000</id>
                <type>PROCESSOR</type>
            </destination>
            <flowFileExpiration>0 sec</flowFileExpiration>
            <labelIndex>1</labelIndex>
            <loadBalanceCompression>DO_NOT_COMPRESS</loadBalanceCompression>
            <loadBalancePartitionAttribute></loadBalancePartitionAttribute>
            <loadBalanceStatus>LOAD_BALANCE_NOT_CONFIGURED</loadBalanceStatus>
            <loadBalanceStrategy>DO_NOT_LOAD_BALANCE</loadBalanceStrategy>
            <name></name>
            <source>
                <groupId>cd5019b1-96b1-31c4-0000-000000000000</groupId>
                <id>932fb188-34a4-3d03-0000-000000000000</id>
                <type>OUTPUT_PORT</type>
            </source>
            <zIndex>0</zIndex>
        </connections>
        <connections>
            <id>bd6dbad4-3bed-3537-0000-000000000000</id>
            <parentGroupId>749470ad-9bc1-3fa4-0000-000000000000</parentGroupId>
            <backPressureDataSizeThreshold>1 GB</backPressureDataSizeThreshold>
            <backPressureObjectThreshold>10000</backPressureObjectThreshold>
            <bends>
                <x>744.0</x>
                <y>224.0</y>
            </bends>
            <destination>
                <groupId>749470ad-9bc1-3fa4-0000-000000000000</groupId>
                <id>61e894ac-7f57-32fb-0000-000000000000</id>
                <type>PROCESSOR</type>
            </destination>
            <flowFileExpiration>0 sec</flowFileExpiration>
            <labelIndex>1</labelIndex>
            <loadBalanceCompression>DO_NOT_COMPRESS</loadBalanceCompression>
            <loadBalancePartitionAttribute></loadBalancePartitionAttribute>
            <loadBalanceStatus>LOAD_BALANCE_NOT_CONFIGURED</loadBalanceStatus>
            <loadBalanceStrategy>DO_NOT_LOAD_BALANCE</loadBalanceStrategy>
            <name></name>
            <source>
                <groupId>ed4c0844-edf5-336e-0000-000000000000</groupId>
                <id>d0e97ee8-97c6-375e-0000-000000000000</id>
                <type>OUTPUT_PORT</type>
            </source>
            <zIndex>0</zIndex>
        </connections>
        <connections>
            <id>ce849077-c6e0-3944-0000-000000000000</id>
            <parentGroupId>749470ad-9bc1-3fa4-0000-000000000000</parentGroupId>
            <backPressureDataSizeThreshold>1 GB</backPressureDataSizeThreshold>
            <backPressureObjectThreshold>10000</backPressureObjectThreshold>
            <destination>
                <groupId>749470ad-9bc1-3fa4-0000-000000000000</groupId>
                <id>364f02db-0a34-3da9-0000-000000000000</id>
                <type>FUNNEL</type>
            </destination>
            <flowFileExpiration>0 sec</flowFileExpiration>
            <labelIndex>1</labelIndex>
            <loadBalanceCompression>DO_NOT_COMPRESS</loadBalanceCompression>
            <loadBalancePartitionAttribute></loadBalancePartitionAttribute>
            <loadBalanceStatus>LOAD_BALANCE_NOT_CONFIGURED</loadBalanceStatus>
            <loadBalanceStrategy>DO_NOT_LOAD_BALANCE</loadBalanceStrategy>
            <name></name>
            <selectedRelationships>failure</selectedRelationships>
            <source>
                <groupId>749470ad-9bc1-3fa4-0000-000000000000</groupId>
                <id>2557f0db-68fc-3271-0000-000000000000</id>
                <type>PROCESSOR</type>
            </source>
            <zIndex>0</zIndex>
        </connections>
        <funnels>
            <id>0a9450d7-862b-3017-0000-000000000000</id>
            <parentGroupId>749470ad-9bc1-3fa4-0000-000000000000</parentGroupId>
            <position>
                <x>3272.0</x>
                <y>584.0</y>
            </position>
        </funnels>
        <funnels>
            <id>364f02db-0a34-3da9-0000-000000000000</id>
            <parentGroupId>749470ad-9bc1-3fa4-0000-000000000000</parentGroupId>
            <position>
                <x>1464.0</x>
                <y>1024.0</y>
            </position>
        </funnels>
        <funnels>
            <id>9af4cdef-52f3-3132-0000-000000000000</id>
            <parentGroupId>749470ad-9bc1-3fa4-0000-000000000000</parentGroupId>
            <position>
                <x>2836.7448112057436</x>
                <y>850.6193730324742</y>
            </position>
        </funnels>
        <funnels>
            <id>e6624b93-5c3c-3fde-0000-000000000000</id>
            <parentGroupId>749470ad-9bc1-3fa4-0000-000000000000</parentGroupId>
            <position>
                <x>2968.0</x>
                <y>568.0</y>
            </position>
        </funnels>
        <processGroups>
            <id>cd5019b1-96b1-31c4-0000-000000000000</id>
            <parentGroupId>749470ad-9bc1-3fa4-0000-000000000000</parentGroupId>
            <position>
                <x>664.0</x>
                <y>608.0</y>
            </position>
            <comments></comments>
            <contents>
                <connections>
                    <id>143f5070-fa8b-35a9-0000-000000000000</id>
                    <parentGroupId>cd5019b1-96b1-31c4-0000-000000000000</parentGroupId>
                    <backPressureDataSizeThreshold>1 GB</backPressureDataSizeThreshold>
                    <backPressureObjectThreshold>10000</backPressureObjectThreshold>
                    <destination>
                        <groupId>cd5019b1-96b1-31c4-0000-000000000000</groupId>
                        <id>663f3526-9ebd-3d1d-0000-000000000000</id>
                        <type>FUNNEL</type>
                    </destination>
                    <flowFileExpiration>0 sec</flowFileExpiration>
                    <labelIndex>1</labelIndex>
                    <loadBalanceCompression>DO_NOT_COMPRESS</loadBalanceCompression>
                    <loadBalancePartitionAttribute></loadBalancePartitionAttribute>
                    <loadBalanceStatus>LOAD_BALANCE_NOT_CONFIGURED</loadBalanceStatus>
                    <loadBalanceStrategy>DO_NOT_LOAD_BALANCE</loadBalanceStrategy>
                    <name></name>
                    <selectedRelationships>failure</selectedRelationships>
                    <source>
                        <groupId>cd5019b1-96b1-31c4-0000-000000000000</groupId>
                        <id>3faeb274-16dd-394b-0000-000000000000</id>
                        <type>PROCESSOR</type>
                    </source>
                    <zIndex>0</zIndex>
                </connections>
                <connections>
                    <id>22b71df9-f244-3137-0000-000000000000</id>
                    <parentGroupId>cd5019b1-96b1-31c4-0000-000000000000</parentGroupId>
                    <backPressureDataSizeThreshold>1 GB</backPressureDataSizeThreshold>
                    <backPressureObjectThreshold>10000</backPressureObjectThreshold>
                    <destination>
                        <groupId>cd5019b1-96b1-31c4-0000-000000000000</groupId>
                        <id>932fb188-34a4-3d03-0000-000000000000</id>
                        <type>OUTPUT_PORT</type>
                    </destination>
                    <flowFileExpiration>0 sec</flowFileExpiration>
                    <labelIndex>1</labelIndex>
                    <loadBalanceCompression>DO_NOT_COMPRESS</loadBalanceCompression>
                    <loadBalancePartitionAttribute></loadBalancePartitionAttribute>
                    <loadBalanceStatus>LOAD_BALANCE_NOT_CONFIGURED</loadBalanceStatus>
                    <loadBalanceStrategy>DO_NOT_LOAD_BALANCE</loadBalanceStrategy>
                    <name></name>
                    <selectedRelationships>success</selectedRelationships>
                    <source>
                        <groupId>cd5019b1-96b1-31c4-0000-000000000000</groupId>
                        <id>3faeb274-16dd-394b-0000-000000000000</id>
                        <type>PROCESSOR</type>
                    </source>
                    <zIndex>0</zIndex>
                </connections>
                <connections>
                    <id>46979b4c-f4fc-30fd-0000-000000000000</id>
                    <parentGroupId>cd5019b1-96b1-31c4-0000-000000000000</parentGroupId>
                    <backPressureDataSizeThreshold>1 GB</backPressureDataSizeThreshold>
                    <backPressureObjectThreshold>10000</backPressureObjectThreshold>
                    <destination>
                        <groupId>cd5019b1-96b1-31c4-0000-000000000000</groupId>
                        <id>9f38f88b-aa4d-3d8b-0000-000000000000</id>
                        <type>FUNNEL</type>
                    </destination>
                    <flowFileExpiration>0 sec</flowFileExpiration>
                    <labelIndex>1</labelIndex>
                    <loadBalanceCompression>DO_NOT_COMPRESS</loadBalanceCompression>
                    <loadBalancePartitionAttribute></loadBalancePartitionAttribute>
                    <loadBalanceStatus>LOAD_BALANCE_NOT_CONFIGURED</loadBalanceStatus>
                    <loadBalanceStrategy>DO_NOT_LOAD_BALANCE</loadBalanceStrategy>
                    <name></name>
                    <selectedRelationships>failure</selectedRelationships>
                    <source>
                        <groupId>cd5019b1-96b1-31c4-0000-000000000000</groupId>
                        <id>c150ab4e-5298-319a-0000-000000000000</id>
                        <type>PROCESSOR</type>
                    </source>
                    <zIndex>0</zIndex>
                </connections>
                <connections>
                    <id>899fb393-c068-35c5-0000-000000000000</id>
                    <parentGroupId>cd5019b1-96b1-31c4-0000-000000000000</parentGroupId>
                    <backPressureDataSizeThreshold>1 GB</backPressureDataSizeThreshold>
                    <backPressureObjectThreshold>10000</backPressureObjectThreshold>
                    <destination>
                        <groupId>cd5019b1-96b1-31c4-0000-000000000000</groupId>
                        <id>c150ab4e-5298-319a-0000-000000000000</id>
                        <type>PROCESSOR</type>
                    </destination>
                    <flowFileExpiration>0 sec</flowFileExpiration>
                    <labelIndex>1</labelIndex>
                    <loadBalanceCompression>DO_NOT_COMPRESS</loadBalanceCompression>
                    <loadBalancePartitionAttribute></loadBalancePartitionAttribute>
                    <loadBalanceStatus>LOAD_BALANCE_NOT_CONFIGURED</loadBalanceStatus>
                    <loadBalanceStrategy>DO_NOT_LOAD_BALANCE</loadBalanceStrategy>
                    <name></name>
                    <source>
                        <groupId>cd5019b1-96b1-31c4-0000-000000000000</groupId>
                        <id>03c7268f-20c2-3d37-0000-000000000000</id>
                        <type>INPUT_PORT</type>
                    </source>
                    <zIndex>0</zIndex>
                </connections>
                <connections>
                    <id>b3b0f751-fc31-3137-0000-000000000000</id>
                    <parentGroupId>cd5019b1-96b1-31c4-0000-000000000000</parentGroupId>
                    <backPressureDataSizeThreshold>1 GB</backPressureDataSizeThreshold>
                    <backPressureObjectThreshold>10000</backPressureObjectThreshold>
                    <destination>
                        <groupId>cd5019b1-96b1-31c4-0000-000000000000</groupId>
                        <id>9f38f88b-aa4d-3d8b-0000-000000000000</id>
                        <type>FUNNEL</type>
                    </destination>
                    <flowFileExpiration>0 sec</flowFileExpiration>
                    <labelIndex>1</labelIndex>
                    <loadBalanceCompression>DO_NOT_COMPRESS</loadBalanceCompression>
                    <loadBalancePartitionAttribute></loadBalancePartitionAttribute>
                    <loadBalanceStatus>LOAD_BALANCE_NOT_CONFIGURED</loadBalanceStatus>
                    <loadBalanceStrategy>DO_NOT_LOAD_BALANCE</loadBalanceStrategy>
                    <name></name>
                    <selectedRelationships>failure</selectedRelationships>
                    <source>
                        <groupId>cd5019b1-96b1-31c4-0000-000000000000</groupId>
                        <id>01ee162f-b13e-339b-0000-000000000000</id>
                        <type>PROCESSOR</type>
                    </source>
                    <zIndex>0</zIndex>
                </connections>
                <connections>
                    <id>bd553d63-df3d-3643-0000-000000000000</id>
                    <parentGroupId>cd5019b1-96b1-31c4-0000-000000000000</parentGroupId>
                    <backPressureDataSizeThreshold>1 GB</backPressureDataSizeThreshold>
                    <backPressureObjectThreshold>10000</backPressureObjectThreshold>
                    <destination>
                        <groupId>cd5019b1-96b1-31c4-0000-000000000000</groupId>
                        <id>3faeb274-16dd-394b-0000-000000000000</id>
                        <type>PROCESSOR</type>
                    </destination>
                    <flowFileExpiration>0 sec</flowFileExpiration>
                    <labelIndex>1</labelIndex>
                    <loadBalanceCompression>DO_NOT_COMPRESS</loadBalanceCompression>
                    <loadBalancePartitionAttribute></loadBalancePartitionAttribute>
                    <loadBalanceStatus>LOAD_BALANCE_NOT_CONFIGURED</loadBalanceStatus>
                    <loadBalanceStrategy>DO_NOT_LOAD_BALANCE</loadBalanceStrategy>
                    <name></name>
                    <selectedRelationships>success</selectedRelationships>
                    <source>
                        <groupId>cd5019b1-96b1-31c4-0000-000000000000</groupId>
                        <id>01ee162f-b13e-339b-0000-000000000000</id>
                        <type>PROCESSOR</type>
                    </source>
                    <zIndex>0</zIndex>
                </connections>
                <connections>
                    <id>c9edf148-0fda-3f1d-0000-000000000000</id>
                    <parentGroupId>cd5019b1-96b1-31c4-0000-000000000000</parentGroupId>
                    <backPressureDataSizeThreshold>1 GB</backPressureDataSizeThreshold>
                    <backPressureObjectThreshold>10000</backPressureObjectThreshold>
                    <destination>
                        <groupId>cd5019b1-96b1-31c4-0000-000000000000</groupId>
                        <id>01ee162f-b13e-339b-0000-000000000000</id>
                        <type>PROCESSOR</type>
                    </destination>
                    <flowFileExpiration>0 sec</flowFileExpiration>
                    <labelIndex>1</labelIndex>
                    <loadBalanceCompression>DO_NOT_COMPRESS</loadBalanceCompression>
                    <loadBalancePartitionAttribute></loadBalancePartitionAttribute>
                    <loadBalanceStatus>LOAD_BALANCE_NOT_CONFIGURED</loadBalanceStatus>
                    <loadBalanceStrategy>DO_NOT_LOAD_BALANCE</loadBalanceStrategy>
                    <name></name>
                    <selectedRelationships>success</selectedRelationships>
                    <source>
                        <groupId>cd5019b1-96b1-31c4-0000-000000000000</groupId>
                        <id>c150ab4e-5298-319a-0000-000000000000</id>
                        <type>PROCESSOR</type>
                    </source>
                    <zIndex>0</zIndex>
                </connections>
                <funnels>
                    <id>663f3526-9ebd-3d1d-0000-000000000000</id>
                    <parentGroupId>cd5019b1-96b1-31c4-0000-000000000000</parentGroupId>
                    <position>
                        <x>1089.0</x>
                        <y>1138.0</y>
                    </position>
                </funnels>
                <funnels>
                    <id>9f38f88b-aa4d-3d8b-0000-000000000000</id>
                    <parentGroupId>cd5019b1-96b1-31c4-0000-000000000000</parentGroupId>
                    <position>
                        <x>200.0</x>
                        <y>776.0</y>
                    </position>
                </funnels>
                <inputPorts>
                    <id>03c7268f-20c2-3d37-0000-000000000000</id>
                    <parentGroupId>cd5019b1-96b1-31c4-0000-000000000000</parentGroupId>
                    <position>
                        <x>777.2455819178323</x>
                        <y>359.8065507598787</y>
                    </position>
                    <concurrentlySchedulableTaskCount>1</concurrentlySchedulableTaskCount>
                    <name>response</name>
                    <state>STOPPED</state>
                    <type>INPUT_PORT</type>
                </inputPorts>
                <outputPorts>
                    <id>932fb188-34a4-3d03-0000-000000000000</id>
                    <parentGroupId>cd5019b1-96b1-31c4-0000-000000000000</parentGroupId>
                    <position>
                        <x>1620.2641072867425</x>
                        <y>964.8762988069191</y>
                    </position>
                    <concurrentlySchedulableTaskCount>1</concurrentlySchedulableTaskCount>
                    <name>response</name>
                    <state>STOPPED</state>
                    <type>OUTPUT_PORT</type>
                </outputPorts>
                <processors>
                    <id>01ee162f-b13e-339b-0000-000000000000</id>
                    <parentGroupId>cd5019b1-96b1-31c4-0000-000000000000</parentGroupId>
                    <position>
                        <x>464.0</x>
                        <y>800.0</y>
                    </position>
                    <bundle>
                        <artifact>nifi-standard-nar</artifact>
                        <group>org.apache.nifi</group>
                        <version>1.10.0</version>
                    </bundle>
                    <config>
                        <bulletinLevel>WARN</bulletinLevel>
                        <comments></comments>
                        <concurrentlySchedulableTaskCount>1</concurrentlySchedulableTaskCount>
                        <descriptors>
                            <entry>
<key>XSLT file name</key>
<value>
    <name>XSLT file name</name>
</value>
                            </entry>
                            <entry>
<key>xslt-controller</key>
<value>
    <identifiesControllerService>org.apache.nifi.lookup.StringLookupService</identifiesControllerService>
    <name>xslt-controller</name>
</value>
                            </entry>
                            <entry>
<key>xslt-controller-key</key>
<value>
    <name>xslt-controller-key</name>
</value>